This directory contains development materials for GEOS-Chem benchmarking.